Version 4
SHEET 1 880 680
WIRE 144 64 128 64
WIRE 304 64 208 64
WIRE 32 128 -64 128
WIRE 128 128 128 64
WIRE 128 128 112 128
WIRE 160 128 128 128
WIRE 304 144 304 64
WIRE 304 144 272 144
WIRE 320 144 304 144
WIRE 160 160 128 160
WIRE -64 176 -64 128
WIRE 128 224 128 160
WIRE 128 336 128 304
FLAG -64 256 0
FLAG 320 144 Vout
FLAG -64 128 Vin
FLAG 128 336 0
SYMBOL op_amp 176 144 R0
SYMATTR InstName X1
SYMBOL res 128 112 R90
WINDOW 0 0 56 VBottom 2
WINDOW 3 32 56 VTop 2
SYMATTR InstName R1
SYMATTR Value 1K
SYMBOL cap 208 48 R90
WINDOW 0 0 32 VBottom 2
WINDOW 3 32 32 VTop 2
SYMATTR InstName C1
SYMATTR Value 1p
SYMBOL voltage -64 160 R0
WINDOW 3 24 152 Left 2
WINDOW 123 24 124 Left 2
WINDOW 39 0 0 Left 0
SYMATTR InstName Vin
SYMATTR Value SINE(0 1m 1k)
SYMATTR Value2 AC 1
SYMBOL voltage 128 208 R0
WINDOW 123 0 0 Left 0
WINDOW 39 0 0 Left 0
SYMATTR InstName V2
SYMATTR Value SINE(0 -0.5m 1k)
TEXT -304 0 Left 2 !.op
TEXT -312 72 Left 2 !;ac dec 10 1 1gig
TEXT -304 24 Left 2 !;tran 5m
TEXT -304 48 Left 2 !.tf V(Vout) Vin
