Version 4
SHEET 1 1472 680
WIRE 432 -144 432 -160
WIRE 432 -144 192 -144
WIRE 192 -112 192 -144
WIRE 432 -112 432 -144
WIRE 480 -112 432 -112
WIRE 272 -96 240 -96
WIRE 384 -96 272 -96
WIRE 192 -64 192 -96
WIRE 480 -64 480 -112
WIRE 480 -64 432 -64
WIRE 192 16 192 -16
WIRE 192 16 112 16
WIRE 272 16 272 -96
WIRE 272 16 192 16
WIRE 192 32 192 16
WIRE 432 64 432 -16
WIRE 688 64 432 64
WIRE 704 64 688 64
WIRE 208 80 192 80
WIRE 432 96 432 64
WIRE 112 112 112 16
WIRE 144 112 112 112
WIRE 208 128 208 80
WIRE 208 128 192 128
WIRE 464 144 432 144
WIRE 688 144 688 64
WIRE 384 176 352 176
WIRE 432 208 432 192
WIRE 464 208 464 144
WIRE 464 208 432 208
WIRE 688 240 688 208
WIRE 192 256 192 128
WIRE 432 256 432 208
WIRE -240 272 -240 240
WIRE -112 272 -112 240
WIRE -16 272 -16 240
WIRE -304 352 -304 288
WIRE -240 368 -240 352
WIRE -112 368 -112 352
WIRE -16 368 -16 352
FLAG -304 352 0
FLAG -304 288 Vss
FLAG -16 240 Vin
FLAG -112 368 Vss
FLAG -16 368 Vss
FLAG -112 240 Vdd
FLAG 432 -160 Vdd
FLAG 352 176 Vin
FLAG 432 256 Vss
FLAG 704 64 Vout
IOPIN 704 64 Out
FLAG 688 240 Vss
FLAG -240 368 Vss
FLAG -240 240 VBias
FLAG 192 256 Vss
DATAFLAG 448 64 ""
SYMBOL nmos4 384 96 R0
WINDOW 0 101 49 Left 2
WINDOW 3 96 73 Left 2
WINDOW 123 96 100 Left 2
SYMATTR InstName M1
SYMATTR Value2 l=0.27u w=162.5u
SYMBOL voltage -112 256 R0
WINDOW 123 0 0 Left 0
WINDOW 39 0 0 Left 0
SYMATTR InstName Vdd
SYMATTR Value 1.8
SYMBOL voltage -16 256 R0
WINDOW 3 24 152 Left 2
WINDOW 123 24 180 Left 2
WINDOW 39 0 0 Left 0
SYMATTR Value SINE(0.61 1m 1k)
SYMATTR Value2 AC 1
SYMATTR InstName Vin
SYMBOL cap 672 144 R0
SYMATTR InstName C1
SYMATTR Value 1p
SYMBOL pmos4 384 -16 M180
WINDOW 123 56 4 Left 2
SYMATTR Value2 l=0.27u w=370u
SYMATTR InstName M2
SYMBOL voltage -240 256 R0
SYMATTR InstName V1
SYMATTR Value 1.17
SYMBOL pmos4 240 -16 R180
WINDOW 123 56 4 Left 2
SYMATTR Value2 l=0.27u w=370u
SYMATTR InstName M3
SYMBOL nmos4 144 32 R0
WINDOW 0 101 49 Left 2
WINDOW 3 96 73 Left 2
WINDOW 123 96 100 Left 2
SYMATTR InstName M4
SYMATTR Value2 l=0.27u w=162.5u
TEXT -344 -88 Left 2 !.include tsmc180.txt
TEXT -312 -32 Left 2 !.op
TEXT -328 -8 Left 2 !;ac dec 10k 1gig 10
TEXT -320 32 Left 2 !.tf V(Vout) Vin
TEXT -344 72 Left 2 !;.ac dec 10 10k 1gig
TEXT -320 112 Left 2 !;.tran 5m
TEXT -328 -128 Left 2 !;dc V1 0.5 1.5 0.01
