Version 4
SHEET 1 1472 680
WIRE 432 -112 432 -160
WIRE 432 64 432 -32
WIRE 688 64 432 64
WIRE 704 64 688 64
WIRE 432 96 432 64
WIRE 464 144 432 144
WIRE 688 144 688 64
WIRE 384 176 352 176
WIRE 144 208 144 176
WIRE 240 208 240 176
WIRE 432 208 432 192
WIRE 464 208 464 144
WIRE 464 208 432 208
WIRE 688 240 688 208
WIRE 432 256 432 208
WIRE -48 288 -48 224
WIRE 144 304 144 288
WIRE 240 304 240 288
FLAG -48 288 0
FLAG -48 224 Vss
FLAG 240 176 Vin
FLAG 144 304 Vss
FLAG 240 304 Vss
FLAG 144 176 Vdd
FLAG 432 -160 Vdd
FLAG 352 176 Vin
FLAG 432 256 Vss
FLAG 704 64 Vout
IOPIN 704 64 Out
FLAG 688 240 Vss
DATAFLAG 448 64 ""
SYMBOL nmos4 384 96 R0
WINDOW 0 101 49 Left 2
WINDOW 3 96 73 Left 2
WINDOW 123 68 117 Left 2
SYMATTR InstName M1
SYMATTR Value nch
SYMATTR Value2 l=0.25u w=179u
SYMBOL voltage 144 192 R0
WINDOW 123 0 0 Left 0
WINDOW 39 0 0 Left 0
SYMATTR InstName Vdd
SYMATTR Value 1.8
SYMBOL voltage 240 192 R0
WINDOW 3 24 152 Left 2
WINDOW 123 24 180 Left 2
WINDOW 39 0 0 Left 0
SYMATTR Value SINE(0.588 1m 1k)
SYMATTR Value2 AC 1
SYMATTR InstName Vin
SYMBOL cap 672 144 R0
SYMATTR InstName C1
SYMATTR Value 5p
SYMBOL res 416 -128 R0
SYMATTR InstName R1
SYMATTR Value 393.46
TEXT -208 -120 Left 2 !.include "C:\\Users\\ASUS\\Desktop\\CMOS_models.txt"
TEXT 40 -64 Left 2 !.op
TEXT 24 -40 Left 2 !;ac dec 10k 1gig 10
TEXT 32 0 Left 2 !;.tf V(Vout) Vin
TEXT 8 40 Left 2 !;.ac dec 10 10k 1gig
TEXT 32 80 Left 2 !;.tran 5m
TEXT 24 -160 Left 2 !;dc V1 0.5 1.5 0.01
